
MESH_FILENAME = gis_nthx001_mesh.SU2
 
MESH_OUT_FILENAME = gis_nthx001_mesh_def.SU2

MARKER_BDRY = (inlet, outlet, periodic_lower, periodic_upper, tube1, tube2, tube3, tube4, tube5, tube6, tube7, tube8, tube9, tube10)

MARKER_MOVING = (tube1,tube2,tube3,tube4,tube5,tube6,tube7, tube8,tube9, tube10)


MARKER_PERIODIC = (periodic_lower, periodic_upper)

%(none, ps, ds) for standard, pseudo sliding or direct sliding
SLIDING_MODE = none

%(none,periodic,fixed,moving) for non-periodic, periodic, periodic displacement with fixed vertices and periodic displacement with moving vertices
PERIODIC_MODE = none

% translational = 0, Rotational = 1
PERIODIC_TYPE = 0

PERIODIC_DIRECTION = 1

STEPS = 20

INFLUENCE_FACTOR = 2.5


DEFORMATION_FILENAME = gis_nthx001_mesh_deformation.txt
 
CURVED = NO
DATA_REDUCTION = YES
DATA_RED_TOLERANCE = 3e-6
GAMMA = 25
DOUBLE_EDGE = YES

## Parameters for the multi level greedy
MULTILEVEL = NO
MULTI_CRIT = size
LVL_TOL_CRIT = 0.5
LVL_SIZE = 100000000

GENERATE_QUALITY = YES



