% ----------------------- INPUT/ OUTPUT FILENAMES -----------------------
% Input mesh filename
MESH_FILENAME = 25x25.su2

% Output mesh filename
MESH_OUT_FILENAME = 25x25_def.su2

% Filename of the file containing the prescribed nonzero deformation
DEFORMATION_FILENAME = 25x25_deformation.txt

% Generate quality file of output mesh file (NO, YES)
GENERATE_QUALITY = YES

% ----------------------- MESH PARAMETERS -----------------------

% Markers denoting the domain boundaries
MARKER_BDRY = (LEFT, RIGHT, UPPER, LOWER, BLOCK)

% Marker of the boundaries with the prescribed nonzero deformations
MARKER_MOVING = (BLOCK)

% Marker of boundaries that are treated as internal nodes
MARKER_INTERNAL = ( )

% Type of periodicity. Translational = 0, rotational = 1
PERIODIC_TYPE = 0

% Direction of periodicity.
% Translational: x = 0, y = 1, z = 2, or Rotational: r = 0, theta = 1, z = 2
PERIODIC_DIRECTION = 1

% Apply curvature correction (NO, YES)
CURVED = NO

% ----------------------- RBF INTERPOLATION PARAMETERS -----------------------

% Method of sliding
% none = no sliding, ps = pseudo sliding, ds = direct sliding
SLIDING_MODE = ps

% Method of applying periodicity (none, periodic, fixed, moving)
% none = non-periodic, periodic = periodic,
% fixed = periodic displacement with fixed vertices,
% moving = periodic displacement with moving vertices
PERIODIC_MODE = none

% Number of steps in which the deformation is applied
STEPS = 20

% RBF support radius = INFLUENCE_FACTOR * largest domain length
INFLUENCE_FACTOR = 2.5


% ----------------------- DATA REDUCTION PARAMETERS -----------------------

% Apply data reduction methods (NO, YES)
DATA_REDUCTION = NO

% Data reduction tolerance
DATA_RED_TOLERANCE = 1e-3

% Apply multilevel greedy algorithm (NO, YES).
% only in case DATA_REDUCTION = YES
MULTILEVEL = NO

% Multilevel greedy criterium (size, tol)
% Proceed to next level when fixed level size, or a given error reduction
% factor is reached
MULTI_CRIT = size

% multilevel greedy tolerance criterium
% Error reduction factor
LVL_TOL_CRIT = 0.5

% Multilevel greedy size criterium
% Level size
LVL_SIZE = 16

$ Apply double edge control node selection (NO, Yes)
DOUBLE_EDGE = YES

$ Greedy correction factor, Correction radius = GAMMA * max error
GAMMA = 25
